98
Lattice="9.6023 0.0 0.0 0.0 10.4349 0.0 0.0 0.0 30.0" Properties=species:S:1:pos:R:3 pbc="T T T"
Ga       2.40041534       3.91317169       1.64381017 
Ga       7.20155136       9.08234608      10.05721366 
Ga       8.80188466       9.13062169       7.18762034 
Ga       7.20156534       9.13062169       4.41571525 
Ga       8.80188466       9.13062169       1.64381017 
Ga       0.80000000       6.52189669       8.11182059 
Ga       5.60115000       9.13062169       1.64381017 
Ga       8.80188466       3.91317169       1.64381017 
Ga       7.20156534       3.91317169       4.41571525 
Ga       8.80188466       3.91317169       7.18762034 
Ga       7.20146932       6.52189669       2.56801042 
Ga       7.20155679       3.86491219      10.05722327 
Ga       8.80188466       1.30444669       5.33991550 
Ga       7.20146932       1.30444669       8.11182059 
Ga       8.80192912       1.44220223      10.64362922 
Ga       2.40031932       6.52189669       5.33991550 
Ga       0.80000000       6.52189669       2.56801042 
Ga       0.80003648       9.08251870      10.05706205 
Ga       2.40041534       9.13062169       7.18762034 
Ga       0.80000000       9.13062169       4.41571525 
Ga       2.40041534       9.13062169       1.64381017 
Ga       7.20146932       1.30444669       2.56801042 
Ga       8.80188466       6.52189669       5.33991550 
Ga       5.60110154       1.44197879      10.64357347 
Ga       4.00073466       1.30444669       8.11182059 
Ga       0.80000000       3.91317169       4.41571525 
Ga       2.40041534       3.91317169       7.18762034 
Ga       0.80003488       3.86508395      10.05707586 
Ga       0.80000000       1.30444669       2.56801042 
Ga       2.40031932       1.30444669       5.33991550 
Ga       0.80000000       1.30444669       8.11182059 
Ga       2.40034690       1.44221068      10.64369319 
Ga       4.00073466       9.13062169       4.41571525 
Ga       5.60115000       9.13062169       7.18762034 
Ga       4.00065096       9.08234896      10.05718830 
Ga       4.00073466       6.52189669       2.56801042 
Ga       5.60115000       6.52189669       5.33991550 
Ga       2.40034907       6.65965881      10.64369597 
Ga       8.80193213       6.65965631      10.64363307 
Ga       7.20146932       6.52189669       8.11182059 
Ga       5.60115000       3.91317169       1.64381017 
Ga       4.00073466       3.91317169       4.41571525 
Ga       5.60115000       3.91317169       7.18762034 
Ga       4.00064564       3.86491635      10.05719883 
Ga       4.00073466       1.30444669       2.56801042 
Ga       5.60115000       1.30444669       5.33991550 
Ga       5.60110568       6.65942444      10.64357559 
Ga       4.00073466       6.52189669       8.11182059 
N       4.00073466       8.48689271       8.11182059 
N       4.00073466       5.87827206       4.41571525 
N       5.60115000       5.87827206       7.18762034 
N       4.00070718       5.82471527      10.00908134 
N       4.00073466       8.48689271       2.56801042 
N       5.60115000       8.48689271       5.33991550 
N       5.60104495       8.46533778      10.87702834 
N       8.80188466       5.87827206       1.64381017 
N       7.20156534       5.87827206       4.41571525 
N       8.80188466       5.87827206       7.18762034 
N       7.20157457       5.82471465      10.00908242 
N       7.20146932       8.48689271       2.56801042 
N       8.80188466       8.48689271       5.33991550 
N       5.60115000       5.87827206       1.64381017 
N       2.40031404       8.46564059      10.87733057 
N       8.80203071       3.24810533      10.87719483 
N       2.40031932       8.48689271       5.33991550 
N       2.40041534       0.66082206       1.64381017 
N       0.80000000       0.66082206       4.41571525 
N       2.40041534       0.66082206       7.18762034 
N       0.79996053       0.60737873      10.00902541 
N       0.80000000       3.26954706       2.56801042 
N       2.40031932       3.26954706       5.33991550 
N       0.80000000       3.26954706       8.11182059 
N       2.40031274       3.24818403      10.87734323 
N       5.60115000       0.66082206       1.64381017 
N       4.00073466       0.66082206       4.41571525 
N       5.60115000       0.66082206       7.18762034 
N       4.00070521       0.60725408      10.00907039 
N       4.00073466       3.26954706       2.56801042 
N       5.60115000       3.26954706       5.33991550 
N       4.00073466       3.26954706       8.11182059 
N       5.60104494       3.24788395      10.87702005 
N       8.80188466       0.66082206       1.64381017 
N       7.20156534       0.66082206       4.41571525 
N       8.80188466       0.66082206       7.18762034 
N       7.20156482       0.60724843      10.00906981 
N       7.20146932       3.26954706       2.56801042 
N       8.80188466       3.26954706       5.33991550 
N       7.20146932       3.26954706       8.11182059 
N       7.20146932       8.48689271       8.11182059 
N       2.40041534       5.87827206       1.64381017 
N       0.80000000       5.87827206       4.41571525 
N       2.40041534       5.87827206       7.18762034 
N       0.79996127       5.82483937      10.00904081 
N       0.80000000       8.48689271       2.56801042 
N       0.80000000       8.48689271       8.11182059 
N       8.80203081       8.46556652      10.87718454 
N       0.50619999       1.82519279      10.51838580 
N       1.13073724       1.88593450      10.69274931 
